138
1UAO.log	Energy:   -3800.2032360
N         -6.26253       -1.93971        4.22041
C         -6.78772       -1.55121        2.92337
C         -5.67376       -1.73280        1.90137
O         -5.16780       -2.82154        1.76227
H         -4.32447       -1.52589        4.47581
H         -5.99324       -2.90567        4.22382
H         -6.93595       -1.80426        4.94776
H         -7.63287       -2.15331        2.59116
H         -7.11167       -0.51891        2.97406
N         -5.34402       -0.63603        1.21139
C         -4.15375       -0.49535        0.39040
C         -3.35407        0.62776        1.03461
O         -3.95971        1.62987        1.36692
C         -4.53760       -0.11809       -1.04436
C         -3.35924       -0.07291       -1.98853
C         -2.88840       -1.24373       -2.57322
C         -2.70609        1.11468       -2.28764
C         -1.82477       -1.22629       -3.45504
C         -1.63565        1.14447       -3.16606
C         -1.19815       -0.02490       -3.76428
O         -0.17938        0.03557       -4.65444
H         -5.69030        0.24173        1.53173
H         -3.60887       -1.42325        0.40332
H         -5.25610       -0.84722       -1.39366
H         -5.03500        0.84523       -1.01415
H         -3.36642       -2.17793       -2.34444
H         -3.02287        2.02811       -1.81491
H         -1.46201       -2.13480       -3.89832
H         -1.11733        2.06044       -3.37961
H          0.42925       -0.68384       -4.48086
N         -2.05821        0.42640        1.20622
C         -1.21696        1.41015        1.85940
C         -0.33182        2.06027        0.80433
O          0.26344        1.37545        0.00341
C         -0.37550        0.78595        2.97426
C          0.32502        1.94499        3.70127
O         -0.30748        2.49973        4.58872
O          1.43330        2.27636        3.22512
H         -1.61363       -0.36434        0.78749
H         -1.88352        2.12756        2.30221
H         -1.05149        0.27239        3.64641
H          0.33936        0.09867        2.54741
N         -0.27576        3.40136        0.77143
C          0.48009        4.06413       -0.27262
C          1.99988        4.06955       -0.10469
O          2.66664        4.30339       -1.08630
C         -0.06003        5.49872       -0.21905
C         -0.37097        5.68896        1.26639
C         -0.94434        4.33425        1.68401
H          0.29624        3.59287       -1.22632
H          0.64771        6.21241       -0.62022
H         -0.97411        5.55961       -0.80475
H          0.54404        5.88494        1.81252
H         -1.06302        6.50149        1.46021
H         -0.73776        4.09957        2.71602
H         -2.01840        4.29975        1.52430
N          2.48107        3.90649        1.13173
C          3.91066        3.74020        1.37300
C          4.35871        2.33988        0.97669
O          5.34441        2.15751        0.31539
C          4.23790        4.08729        2.83049
C          5.73272        4.05908        3.16670
C          6.32094        2.68680        3.59311
O          5.56988        1.70739        3.48236
O          7.47861        2.73172        4.00860
H          1.87833        3.52561        1.83747
H          4.43730        4.40725        0.70828
H          3.83998        5.08952        2.99025
H          3.70054        3.41930        3.48829
H          6.32534        4.41897        2.32735
H          5.93067        4.74681        3.98513
N          3.51548        1.33328        1.32975
C          3.98233       -0.00906        1.14514
C          3.67477       -0.49481       -0.25886
O          4.09729       -1.55995       -0.67681
C          3.36773       -1.01657        2.11585
O          2.02270       -1.23594        1.69939
C          3.44189       -0.59974        3.57544
H          2.82938        1.51610        2.03681
H          5.05368       -0.03428        1.27554
H          3.92161       -1.93779        1.97059
H          1.68409       -2.02636        2.09534
H          4.44587       -0.29607        3.83644
H          3.12642       -1.43441        4.20074
H          2.79094        0.24135        3.76726
N          2.83764        0.27647       -0.95399
C          2.35117       -0.07212       -2.24701
C          1.56239       -1.36203       -2.31763
O          1.37552       -1.89725       -3.40103
H          2.41750        1.04137       -0.47581
H          1.70822        0.72346       -2.59746
H          3.15788       -0.18827       -2.95806
N          1.10680       -1.86032       -1.17333
C          0.57264       -3.18569       -1.08847
C         -0.58981       -3.20890       -0.11499
O         -0.98100       -2.22246        0.46091
C          1.68091       -4.20785       -0.73286
O          2.32332       -3.83823        0.44749
C          2.67912       -4.40085       -1.86960
H          1.24995       -1.34617       -0.32683
H          0.15995       -3.44172       -2.05640
H          1.21735       -5.16635       -0.52518
H          2.90538       -3.10467        0.25697
H          2.18194       -4.69213       -2.78897
H          3.38447       -5.17435       -1.58378
H          3.23337       -3.49163       -2.05405
N         -1.18845       -4.40267        0.04402
C         -2.49301       -4.56193        0.66961
C         -2.37483       -4.71979        2.18733
O         -2.68833       -5.73949        2.74201
C         -3.20978       -5.76345        0.04208
C         -3.48401       -5.54033       -1.41649
C         -2.78445       -5.99394       -2.47761
C         -4.52850       -4.69919       -1.95882
N         -3.32020       -5.51150       -3.65325
C         -4.37729       -4.69503       -3.35102
C         -5.55483       -3.95194       -1.37491
C         -5.21065       -3.94822       -4.18248
C         -6.38806       -3.22286       -2.19233
C         -6.20981       -3.21529       -3.58477
H         -0.87005       -5.15539       -0.51765
H         -3.07075       -3.67169        0.46762
H         -2.61634       -6.65853        0.19601
H         -4.13580       -5.91687        0.58065
H         -1.93379       -6.64492       -2.50196
H         -2.89744       -5.59352       -4.54712
H         -5.67196       -3.92395       -0.30807
H         -5.06783       -3.93199       -5.24792
H         -7.17427       -2.63088       -1.75813
H         -6.86143       -2.61528       -4.19435
N         -1.88799       -3.63670        2.82375
C         -1.87235       -3.54013        4.26193
C         -3.18975       -2.98300        4.76080
O         -3.94879       -3.57755        5.46274
O         -3.40938       -1.76657        4.30464
H         -1.73843       -2.80471        2.29483
H         -1.72060       -4.51485        4.69294
H         -1.06997       -2.87555        4.55844
